data_converted_from_vasp
_symmetry_space_group_name_H-M   'P 1'
_cell_length_a   5.05612782
_cell_length_b   5.05612782
_cell_length_c   5.16518455
_cell_angle_alpha   90.00000000
_cell_angle_beta   90.00000000
_cell_angle_gamma   90.00000000
_symmetry_Int_Tables_number   1
_chemical_formula_structural   HfO
_chemical_formula_sum   'Hf4 O8'
_cell_volume   132.04499115
_cell_formula_units_Z   1

loop_
 _symmetry_equiv_pos_site_id
 _symmetry_equiv_pos_as_xyz
  1  'x, y, z'

loop_
 _atom_site_label
 _atom_site_type_symbol
 _atom_site_fract_x
 _atom_site_fract_y
 _atom_site_fract_z
  Hf1  Hf  0.00000000  0.00000000  0.00000000
  Hf2  Hf  0.00000000  0.50000000  0.50000000
  Hf3  Hf  0.50000000  0.00000000  0.50000000
  Hf4  Hf  0.50000000  0.50000000  0.00000000
  O5  O  0.25000000  0.25000000  0.20274522
  O6  O  0.25000000  0.25000000  0.70274522
  O7  O  0.25000000  0.75000000  0.29725478
  O8  O  0.25000000  0.75000000  0.79725478
  O9  O  0.75000000  0.25000000  0.29725478
  O10  O  0.75000000  0.25000000  0.79725478
  O11  O  0.75000000  0.75000000  0.20274522
  O12  O  0.75000000  0.75000000  0.70274522
